
 OpenBabel12052208463D

 68 72  0  0  0  0  0  0  0  0999 V2000
    2.5196   -0.1608    0.0053 C   0  0  0  0  0  0  0  0  0  0  0  0
    1.0193   -0.0977    0.1124 C   0  0  0  0  0  0  0  0  0  0  0  0
    0.3631    0.9816   -0.5006 C   0  0  0  0  0  0  0  0  0  0  0  0
   -1.0292    1.0925   -0.4794 C   0  0  0  0  0  0  0  0  0  0  0  0
   -1.7992    0.1099    0.1318 C   0  0  0  0  0  0  0  0  0  0  0  0
   -1.1469   -0.9480    0.7637 C   0  0  0  0  0  0  0  0  0  0  0  0
    0.2609   -1.0461    0.8269 C   0  0  0  0  0  0  0  0  0  0  0  0
    0.8692   -2.0456    1.6117 N   0  0  0  0  0  0  0  0  0  0  0  0
    0.4460   -2.5464    2.8495 C   0  0  0  0  0  0  0  0  0  0  0  0
    1.2089   -3.4795    3.4287 N   0  0  0  0  0  0  0  0  0  0  0  0
    0.8257   -3.9045    4.6506 C   0  0  0  0  0  0  0  0  0  0  0  0
   -0.2565   -3.4002    5.3353 C   0  0  0  0  0  0  0  0  0  0  0  0
   -0.9772   -2.4231    4.6850 C   0  0  0  0  0  0  0  0  0  0  0  0
   -0.6380   -2.0277    3.4417 N   0  0  0  0  0  0  0  0  0  0  0  0
   -2.1100   -1.6852    5.2726 C   0  0  0  0  0  0  0  0  0  0  0  0
   -2.4479   -0.3965    4.8200 C   0  0  0  0  0  0  0  0  0  0  0  0
   -3.4995    0.3151    5.3935 C   0  0  0  0  0  0  0  0  0  0  0  0
   -4.2053   -0.2828    6.4191 C   0  0  0  0  0  0  0  0  0  0  0  0
   -3.9374   -1.5207    6.8858 N   0  0  0  0  0  0  0  0  0  0  0  0
   -2.9066   -2.1844    6.3021 C   0  0  0  0  0  0  0  0  0  0  0  0
   -3.2143    0.1175    0.1483 N   0  0  0  0  0  0  0  0  0  0  0  0
   -4.0259    1.1788   -0.1985 C   0  0  0  0  0  0  0  0  0  0  0  0
   -3.6592    2.3107   -0.5056 O   0  0  0  0  0  0  0  0  0  0  0  0
   -5.4930    0.9282   -0.1136 C   0  0  0  0  0  0  0  0  0  0  0  0
   -6.3128    1.9918    0.2786 C   0  0  0  0  0  0  0  0  0  0  0  0
   -7.6958    1.8341    0.3158 C   0  0  0  0  0  0  0  0  0  0  0  0
   -8.2829    0.6184   -0.0685 C   0  0  0  0  0  0  0  0  0  0  0  0
   -7.4552   -0.4470   -0.4540 C   0  0  0  0  0  0  0  0  0  0  0  0
   -6.0651   -0.2963   -0.4813 C   0  0  0  0  0  0  0  0  0  0  0  0
   -9.7943    0.5161   -0.1655 C   0  0  0  0  0  0  0  0  0  0  0  0
  -10.3452    1.4922   -1.1145 N   0  0  0  0  0  0  0  0  0  0  0  0
   -9.8692    1.2712   -2.4946 C   0  0  0  0  0  0  0  0  0  0  0  0
  -10.4342    2.3309   -3.4662 C   0  0  0  0  0  0  0  0  0  0  0  0
  -11.9071    2.4280   -3.4824 N   0  0  0  0  0  0  0  0  0  0  0  0
  -12.3957    2.5494   -2.0933 C   0  0  0  0  0  0  0  0  0  0  0  0
  -11.8168    1.5141   -1.0933 C   0  0  0  0  0  0  0  0  0  0  0  0
  -12.5085    1.2911   -4.1729 C   0  0  0  0  0  0  0  0  0  0  0  0
    2.8727    0.4446   -0.8375 H   0  0  0  0  0  0  0  0  0  0  0  0
    2.8527   -1.1842   -0.1913 H   0  0  0  0  0  0  0  0  0  0  0  0
    2.9883    0.2145    0.9194 H   0  0  0  0  0  0  0  0  0  0  0  0
    0.9346    1.7572   -1.0092 H   0  0  0  0  0  0  0  0  0  0  0  0
   -1.4771    1.9462   -0.9777 H   0  0  0  0  0  0  0  0  0  0  0  0
   -1.7431   -1.7207    1.2502 H   0  0  0  0  0  0  0  0  0  0  0  0
    1.8707   -2.1524    1.5469 H   0  0  0  0  0  0  0  0  0  0  0  0
    1.4505   -4.6780    5.0883 H   0  0  0  0  0  0  0  0  0  0  0  0
   -0.4831   -3.7388    6.3361 H   0  0  0  0  0  0  0  0  0  0  0  0
   -1.8789    0.0691    4.0162 H   0  0  0  0  0  0  0  0  0  0  0  0
   -3.7497    1.3121    5.0480 H   0  0  0  0  0  0  0  0  0  0  0  0
   -5.0287    0.2320    6.9059 H   0  0  0  0  0  0  0  0  0  0  0  0
   -2.7509   -3.1792    6.7109 H   0  0  0  0  0  0  0  0  0  0  0  0
   -3.6562   -0.6978    0.5566 H   0  0  0  0  0  0  0  0  0  0  0  0
   -5.8772    2.9582    0.5267 H   0  0  0  0  0  0  0  0  0  0  0  0
   -8.3245    2.6814    0.5837 H   0  0  0  0  0  0  0  0  0  0  0  0
   -7.8934   -1.3854   -0.7854 H   0  0  0  0  0  0  0  0  0  0  0  0
   -5.4500   -1.1142   -0.8440 H   0  0  0  0  0  0  0  0  0  0  0  0
  -10.1938    0.7086    0.8391 H   0  0  0  0  0  0  0  0  0  0  0  0
  -10.0942   -0.5058   -0.4317 H   0  0  0  0  0  0  0  0  0  0  0  0
  -10.1369    0.2636   -2.8376 H   0  0  0  0  0  0  0  0  0  0  0  0
   -8.7777    1.3476   -2.5442 H   0  0  0  0  0  0  0  0  0  0  0  0
  -10.0540    2.1411   -4.4775 H   0  0  0  0  0  0  0  0  0  0  0  0
  -10.0316    3.3127   -3.1820 H   0  0  0  0  0  0  0  0  0  0  0  0
  -13.4921    2.5081   -2.0750 H   0  0  0  0  0  0  0  0  0  0  0  0
  -12.1349    3.5547   -1.7357 H   0  0  0  0  0  0  0  0  0  0  0  0
  -12.2227    0.5196   -1.3196 H   0  0  0  0  0  0  0  0  0  0  0  0
  -12.1659    1.7843   -0.0894 H   0  0  0  0  0  0  0  0  0  0  0  0
  -12.1332    1.2274   -5.2006 H   0  0  0  0  0  0  0  0  0  0  0  0
  -13.5934    1.4242   -4.2463 H   0  0  0  0  0  0  0  0  0  0  0  0
  -12.3158    0.3319   -3.6822 H   0  0  0  0  0  0  0  0  0  0  0  0
  1  2  1  0  0  0  0
  1 38  1  0  0  0  0
  1 39  1  0  0  0  0
  1 40  1  0  0  0  0
  2  3  1  0  0  0  0
  2  7  2  0  0  0  0
  3  4  2  0  0  0  0
  3 41  1  0  0  0  0
  4  5  1  0  0  0  0
  4 42  1  0  0  0  0
  5  6  2  0  0  0  0
  5 21  1  0  0  0  0
  6  7  1  0  0  0  0
  6 43  1  0  0  0  0
  7  8  1  0  0  0  0
  8  9  1  0  0  0  0
  8 44  1  0  0  0  0
  9 10  1  0  0  0  0
  9 14  2  0  0  0  0
 10 11  2  0  0  0  0
 11 12  1  0  0  0  0
 11 45  1  0  0  0  0
 12 13  2  0  0  0  0
 12 46  1  0  0  0  0
 13 14  1  0  0  0  0
 13 15  1  0  0  0  0
 15 16  1  0  0  0  0
 15 20  2  0  0  0  0
 16 17  2  0  0  0  0
 16 47  1  0  0  0  0
 17 18  1  0  0  0  0
 17 48  1  0  0  0  0
 18 19  2  0  0  0  0
 18 49  1  0  0  0  0
 19 20  1  0  0  0  0
 20 50  1  0  0  0  0
 21 22  1  0  0  0  0
 21 51  1  0  0  0  0
 22 23  2  0  0  0  0
 22 24  1  0  0  0  0
 24 25  1  0  0  0  0
 24 29  2  0  0  0  0
 25 26  2  0  0  0  0
 25 52  1  0  0  0  0
 26 27  1  0  0  0  0
 26 53  1  0  0  0  0
 27 28  2  0  0  0  0
 27 30  1  0  0  0  0
 28 29  1  0  0  0  0
 28 54  1  0  0  0  0
 29 55  1  0  0  0  0
 30 31  1  0  0  0  0
 30 56  1  0  0  0  0
 30 57  1  0  0  0  0
 31 32  1  0  0  0  0
 31 36  1  0  0  0  0
 32 33  1  0  0  0  0
 32 58  1  0  0  0  0
 32 59  1  0  0  0  0
 33 34  1  0  0  0  0
 33 60  1  0  0  0  0
 33 61  1  0  0  0  0
 34 35  1  0  0  0  0
 34 37  1  0  0  0  0
 35 36  1  0  0  0  0
 35 62  1  0  0  0  0
 35 63  1  0  0  0  0
 36 64  1  0  0  0  0
 36 65  1  0  0  0  0
 37 66  1  0  0  0  0
 37 67  1  0  0  0  0
 37 68  1  0  0  0  0
M  END
$$$$
